2    
Iteration 0 Energy -6.12183818
C        0.5648117926    0.0000000000    0.0000000000
O       -0.5648117926    0.0000000000    0.0000000000
2    
Iteration 1 Energy -6.12184997
C        0.5638356450   -0.0000000000   -0.0000000000
O       -0.5638356450    0.0000000000    0.0000000000
2    
Iteration 2 Energy -6.12185025
C        0.5636594543    0.0000000000    0.0000000000
O       -0.5636594543   -0.0000000000   -0.0000000000
