15   
Iteration 0 Energy -27.26945855
C        1.9513606030   -1.1380056200   -0.1939041141
S        3.0869185614    0.1167504048    0.1080721684
C        1.8416278712    1.2814601960    0.3266956105
C        0.6011775226    0.7127850552    0.1852437744
C        0.6647022834   -0.6649086096   -0.1409255958
O       -0.4158504715   -1.4507586122   -0.3617916592
C       -1.5874555000   -0.6380859397   -0.5620173401
C       -1.6664310129    0.5150206727    0.4480996103
O       -0.5483598742    1.4142910897    0.3280350586
H        2.2847161309   -2.1438055267   -0.4057515319
H        2.0825433901    2.3089796469    0.5586483122
H       -1.5665646262   -0.2555837291   -1.5902819413
H       -2.4618124073   -1.2883636514   -0.4582942886
H       -1.6886026861    0.1324703335    1.4763195331
H       -2.5779697791    1.0977542846    0.2818523981
15   
Iteration 1 Energy -27.27149344
C        1.9517869171   -1.1303149946   -0.1930770443
S        3.0932770505    0.1169907280    0.1082947879
C        1.8426898507    1.2738257148    0.3259206450
C        0.6075097945    0.7170829674    0.1761610915
C        0.6706912711   -0.6687400916   -0.1314114351
O       -0.4338925647   -1.4375686438   -0.3448570259
C       -1.5887930365   -0.6329946168   -0.5584477151
C       -1.6671283526    0.5098524930    0.4444587161
O       -0.5641291458    1.3998225514    0.3099167891
H        2.2768688478   -2.1267868066   -0.4037993953
H        2.0761583032    2.2914224526    0.5561977668
H       -1.5646897804   -0.2314133943   -1.5795894679
H       -2.4501222949   -1.2931144016   -0.4491120326
H       -1.6841675574    0.1085385774    1.4658478220
H       -2.5660592972    1.1033974593    0.2734964926
15   
Iteration 2 Energy -27.27170708
C        1.9503015399   -1.1415986871   -0.1935799154
S        3.0819439788    0.1165622642    0.1078981685
C        1.8403261706    1.2849642951    0.3262889736
C        0.6130715127    0.7214459173    0.1747574836
C        0.6764540939   -0.6726751296   -0.1296114796
O       -0.4412955119   -1.4310814036   -0.3403144886
C       -1.5877648493   -0.6324894092   -0.5615052700
C       -1.6662806543    0.5094180771    0.4475818266
O       -0.5706856266    1.3928069013    0.3048853255
H        2.2739512309   -2.1390508860   -0.3979093738
H        2.0727423660    2.3034475280    0.5500861953
H       -1.5606125155   -0.2190871245   -1.5791623949
H       -2.4429218270   -1.3009817231   -0.4575349686
H       -1.6791517262    0.0965559395    1.4657389330
H       -2.5600781770    1.1117634352    0.2823809795
15   
Iteration 3 Energy -27.27177281
C        1.9519342999   -1.1346760096   -0.1912420985
S        3.0924398171    0.1169590154    0.1082654708
C        1.8426355226    1.2781904195    0.3240890492
C        0.6111306746    0.7217322969    0.1752079876
C        0.6745772638   -0.6731053266   -0.1301954264
O       -0.4438509955   -1.4314504988   -0.3402929316
C       -1.5898327914   -0.6336366461   -0.5632935912
C       -1.6685494042    0.5104013887    0.4492183867
O       -0.5732545521    1.3929826029    0.3046845976
H        2.2773118368   -2.1331926396   -0.3922174606
H        2.0769246092    2.2978741350    0.5446581232
H       -1.5618244061   -0.2168328125   -1.5799612963
H       -2.4458672729   -1.3024392512   -0.4634469197
H       -1.6802432614    0.0942145617    1.4664572438
H       -2.5635313353    1.1129787591    0.2880688602
15   
Iteration 4 Energy -27.27178634
C        1.9509727336   -1.1360833557   -0.1915865561
S        3.0899875171    0.1168663774    0.1081796557
C        1.8415489070    1.2795206148    0.3243618722
C        0.6108714588    0.7214193748    0.1750006723
C        0.6742810386   -0.6728137145   -0.1300075872
O       -0.4425532293   -1.4319527858   -0.3392220128
C       -1.5889597293   -0.6333195261   -0.5631305766
C       -1.6676454751    0.5101513555    0.4491175394
O       -0.5719263764    1.3935838756    0.3037055792
H        2.2771794467   -2.1348014762   -0.3922465063
H        2.0766694480    2.2994686829    0.5446736554
H       -1.5603454140   -0.2164240815   -1.5795189548
H       -2.4469347861   -1.2996397953   -0.4642138506
H       -1.6787102877    0.0939196282    1.4661203092
H       -2.5644352466    1.1101048206    0.2887667557
15   
Iteration 5 Energy -27.27178929
C        1.9502148832   -1.1365690923   -0.1913956364
S        3.0889958880    0.1168287446    0.1081447452
C        1.8407715285    1.2799482905    0.3241171006
C        0.6103462272    0.7215596330    0.1746816226
C        0.6737473624   -0.6729936915   -0.1297253475
O       -0.4429895870   -1.4321354550   -0.3380770590
C       -1.5885465015   -0.6331050692   -0.5635232311
C       -1.6672459066    0.5099676118    0.4495386910
O       -0.5722945882    1.3937362174    0.3025328022
H        2.2770581998   -2.1352756570   -0.3910267114
H        2.0765981485    2.2999355101    0.5434468705
H       -1.5580261474   -0.2152895785   -1.5794660131
H       -2.4473651610   -1.2985034720   -0.4666771602
H       -1.6763144100    0.0929634047    1.4662324696
H       -2.5649499305    1.1089325980    0.2911968518
15   
Iteration 6 Energy -27.27179130
C        1.9494143010   -1.1368975356   -0.1905697179
S        3.0882921401    0.1168024370    0.1081199405
C        1.8400081849    1.2802189821    0.3232365736
C        0.6096197379    0.7217858314    0.1740766399
C        0.6729988429   -0.6732765429   -0.1291717352
O       -0.4439024124   -1.4324166436   -0.3365358114
C       -1.5883068090   -0.6326331237   -0.5641941746
C       -1.6670182313    0.5095127574    0.4502258692
O       -0.5731148955    1.3939505350    0.3009313266
H        2.2769236977   -2.1356524695   -0.3886902676
H        2.0765986864    2.3003088300    0.5411056300
H       -1.5545289078   -0.2130560174   -1.5793414733
H       -2.4482902722   -1.2969172897   -0.4707714649
H       -1.6726586709    0.0909997373    1.4663582068
H       -2.5660353865    1.1072705069    0.2952204529
15   
Iteration 7 Energy -27.27179167
C        1.9492111170   -1.1369187015   -0.1900008025
S        3.0881787889    0.1167973843    0.1081148425
C        1.8398429870    1.2802256618    0.3226540500
C        0.6093848656    0.7218476874    0.1737805853
C        0.6727520325   -0.6733545810   -0.1288911090
O       -0.4442713493   -1.4325525891   -0.3361791069
C       -1.5883108372   -0.6323541600   -0.5644727931
C       -1.6670222585    0.5092335074    0.4505045102
O       -0.5734696484    1.3940601144    0.3005512801
H        2.2766523246   -2.1357439720   -0.3877748193
H        2.0763853657    2.3003812196    0.5401718525
H       -1.5532040536   -0.2121705234   -1.5793423052
H       -2.4485156549   -1.2964878654   -0.4723165731
H       -1.6712765216    0.0902165844    1.4664540627
H       -2.5663371525    1.1068202280    0.2967463206
