20   
Iteration 0 Energy -40.06511280
O        1.5796172372   -2.2795206373   -0.2616593503
C        1.8553075625   -1.0993869603   -0.1281278842
C        3.2556799209   -0.6660639569   -0.0813921277
C        3.2682094244    0.6533847651    0.0684245502
C        1.8762480413    1.1126116015    0.1230342625
O        1.6239367017    2.2980348122    0.2580982364
N        1.0654436449    0.0138144304   -0.0003154849
C       -0.3659121716    0.0264908440    0.0036539633
C       -1.0906373485    1.2245108272    0.1409814399
C       -2.4917890051    1.2451189933    0.1457985241
C       -3.2071491160    0.0623894799    0.0127561977
C       -2.5149648555   -1.1335396765   -0.1242770828
Cl      -3.3932621592   -2.6058684038   -0.2899211229
C       -1.1152482376   -1.1554073956   -0.1292378757
H        4.0884215439   -1.3426066597   -0.1596922253
H        4.1139031306    1.3141813449    0.1419732291
H       -0.5972590236    2.1863549464    0.2493343368
H       -3.0174942896    2.1911939334    0.2541597609
H       -4.2933891871    0.0789414710    0.0165555048
H       -0.6396618241   -2.1246337698   -0.2401468414
20   
Iteration 1 Energy -40.06444606
O        1.3544691145   -2.2580582008   -0.2588245956
C        1.8157784110   -1.1448461542   -0.1332205835
C        3.2187204459   -0.6570884413   -0.0803076146
C        3.2205353029    0.6672772493    0.0700865507
C        1.8195178749    1.1598437589    0.1284981699
O        1.3636141244    2.2753614610    0.2559833869
N        1.0637540193    0.0086378579   -0.0009003540
C       -0.3522642709    0.0093284026    0.0016809035
C       -1.0130438267    1.2248288615    0.1408803563
C       -2.3972865896    1.2305207558    0.1439737415
C       -3.1382618855    0.0705762989    0.0135637443
C       -2.4600758407   -1.1287278609   -0.1238279125
Cl      -3.3381947527   -2.6006656822   -0.2894275897
C       -1.0747483892   -1.1713874632   -0.1311239377
H        4.0566519922   -1.3244619822   -0.1575757218
H        4.0607442167    1.3321111474    0.1441033567
H       -0.4857582135    2.1613826370    0.2463015575
H       -2.9089822180    2.1746291561    0.2520874739
H       -4.2182518159    0.0995130507    0.0187586421
H       -0.5869177095   -2.1287748626   -0.2407095633
20   
Iteration 2 Energy -40.07116777
O        1.3784627988   -2.2492844378   -0.2578705666
C        1.8156989203   -1.1309460723   -0.1316418879
C        3.2311388425   -0.6767475590   -0.0825620353
C        3.2581635280    0.6435526657    0.0673258948
C        1.8632068021    1.1555765260    0.1279363812
O        1.4835695199    2.2945228463    0.2579474582
N        1.0585474719    0.0278112529    0.0012862009
C       -0.3649264149    0.0447276451    0.0057232096
C       -1.0630134092    1.2419917874    0.1429176314
C       -2.4466258218    1.2261582396    0.1435654660
C       -3.1675444105    0.0555062347    0.0119040700
C       -2.4629657069   -1.1272305558   -0.1236528043
Cl      -3.3110680636   -2.6169843350   -0.2913286808
C       -1.0777853874   -1.1426285051   -0.1278526668
H        4.0543739810   -1.3619593810   -0.1618299128
H        4.1091751756    1.2947011212    0.1397694650
H       -0.5599689114    2.1884943952    0.2495114425
H       -2.9735802568    2.1615997937    0.2507219695
H       -4.2472054295    0.0628999798    0.0146519737
H       -0.5776532386   -2.0917616521   -0.2365225978
20   
Iteration 3 Energy -40.07233121
O        1.5371769159   -2.2814325449   -0.2618019617
C        1.8645848694   -1.1318631878   -0.1318325253
C        3.2686498354   -0.6444401579   -0.0789596036
C        3.2528920431    0.6725360883    0.0706265710
C        1.8391734405    1.1328167092    0.1253942644
O        1.4695884095    2.2700149442    0.2551892210
N        1.0424447081   -0.0072741148   -0.0026696748
C       -0.3856016120   -0.0063561265   -0.0000413308
C       -1.0528944132    1.2088389025    0.1391349087
C       -2.4361361114    1.2394508740    0.1450564595
C       -3.1808678496    0.0829902633    0.0150486489
C       -2.5092470432   -1.1196071958   -0.1227053380
Cl      -3.4054934876   -2.5827815893   -0.2872776937
C       -1.1248188734   -1.1798242389   -0.1319934615
H        4.1102809954   -1.3073654362   -0.1557292237
H        4.0799734853    1.3535537165    0.1465043937
H       -0.5191622881    2.1373491475    0.2436313218
H       -2.9379502477    2.1889269766    0.2537624441
H       -4.2592295225    0.1151864065    0.0206108948
H       -0.6533632645   -2.1407194471   -0.2419483044
20   
Iteration 4 Energy -40.07320055
O        1.4794170117   -2.2710916473   -0.2605265440
C        1.8397311271   -1.1332863697   -0.1319505678
C        3.2531868382   -0.6648876467   -0.0812546865
C        3.2677696933    0.6532425679    0.0684095776
C        1.8607873521    1.1379067663    0.1259342403
O        1.5243130647    2.2832444021    0.2565957670
N        1.0399727524    0.0102537748   -0.0006746887
C       -0.3826955366    0.0306030622    0.0041507401
C       -1.0815935121    1.2279197721    0.1413519025
C       -2.4649000866    1.2446835000    0.1457010831
C       -3.1811094454    0.0692188473    0.0134834339
C       -2.4838457982   -1.1194455624   -0.1227327117
Cl      -3.3488486263   -2.6038624501   -0.2897717020
C       -1.0994705301   -1.1541240608   -0.1291186205
H        4.0759784373   -1.3501777028   -0.1605313557
H        4.1022792318    1.3250751810    0.1432309133
H       -0.5556485073    2.1591423974    0.2461704698
H       -2.9839448847    2.1847701485    0.2533731687
H       -4.2586851491    0.0723671731    0.0157461869
H       -0.6026934428   -2.1015521634   -0.2375865957
20   
Iteration 5 Energy -40.07310478
O        1.4610230661   -2.2606113300   -0.2593054793
C        1.8315952896   -1.1256611063   -0.1310709373
C        3.2520241109   -0.6779417637   -0.0827356870
C        3.2701029708    0.6398054083    0.0668797003
C        1.8703720024    1.1472162265    0.1269755149
O        1.5369511049    2.2943123815    0.2578323326
N        1.0414177867    0.0250108433    0.0009989382
C       -0.3800184579    0.0489253244    0.0062269642
C       -1.0799278674    1.2460040481    0.1434021607
C       -2.4632823806    1.2264851804    0.1436310185
C       -3.1918035359    0.0582461483    0.0122554617
C       -2.4806496321   -1.1207737238   -0.1228890764
Cl      -3.3307422121   -2.6148654647   -0.2910527605
C       -1.0960632865   -1.1388949084   -0.1273941373
H        4.0655539020   -1.3745145309   -0.1632779344
H        4.1075158200    1.3074427128    0.1412193345
H       -0.5631470449    2.1830629662    0.2488995179
H       -2.9897038701    2.1615044230    0.2507409064
H       -4.2698758368    0.0576270740    0.0140910434
H       -0.5913419398   -2.0823799194   -0.2354268706
20   
Iteration 6 Energy -40.07328114
O        1.4681829052   -2.2650099552   -0.2598178179
C        1.8358191599   -1.1285828190   -0.1314102797
C        3.2526957215   -0.6702413296   -0.0818624729
C        3.2686253322    0.6472005864    0.0677221412
C        1.8653483538    1.1438712616    0.1266046275
O        1.5278786037    2.2898740646    0.2573445400
N        1.0411331526    0.0182873833    0.0002359375
C       -0.3809616587    0.0380247633    0.0049907874
C       -1.0784515414    1.2371160109    0.1423902130
C       -2.4616106555    1.2348144208    0.1445738796
C       -3.1851387114    0.0639804230    0.0128948761
C       -2.4830580480   -1.1210119249   -0.1229118086
Cl      -3.3424160542   -2.6099083895   -0.2904691242
C       -1.0988201721   -1.1488822639   -0.1285233699
H        4.0692813041   -1.3629872953   -0.1619756067
H        4.1031192701    1.3188532604    0.1425229568
H       -0.5556749274    2.1706857200    0.2474807006
H       -2.9843825941    2.1726171737    0.2519933367
H       -4.2629674558    0.0661642310    0.0150482904
H       -0.5986019950   -2.0948653322   -0.2368317962
20   
Iteration 7 Energy -40.07329255
O        1.4716953061   -2.2660777859   -0.2599474281
C        1.8373937927   -1.1290426879   -0.1314662880
C        3.2533699078   -0.6686225190   -0.0816808483
C        3.2682411678    0.6487014972    0.0678933867
C        1.8641449726    1.1430600673    0.1265159106
O        1.5242755399    2.2883473369    0.2571802372
N        1.0414374631    0.0166466938    0.0000494518
C       -0.3805679462    0.0349445816    0.0046407337
C       -1.0792655630    1.2332075269    0.1419474751
C       -2.4624068857    1.2381550544    0.1449539518
C       -3.1831117033    0.0657664883    0.0130940551
C       -2.4825144359   -1.1201590369   -0.1228150552
Cl      -3.3467945822   -2.6063561246   -0.2900566797
C       -1.0983565281   -1.1516183434   -0.1288338127
H        4.0700388225   -1.3613483726   -0.1617927334
H        4.1011684042    1.3223284581    0.1429213508
H       -0.5545351022    2.1656951917    0.2469110540
H       -2.9840561927    2.1766778213    0.2524522635
H       -4.2610623156    0.0678025528    0.0152304098
H       -0.5990941322   -2.0981084108   -0.2371974240
20   
Iteration 8 Energy -40.07329171
O        1.4706891491   -2.2663787466   -0.2599831332
C        1.8370377584   -1.1294985902   -0.1315190201
C        3.2523273743   -0.6667765505   -0.0814703722
C        3.2689379710    0.6504445679    0.0680909507
C        1.8639613898    1.1421814687    0.1264180574
O        1.5260201343    2.2879849070    0.2571395562
N        1.0409294549    0.0158778166   -0.0000368975
C       -0.3810040205    0.0337634025    0.0045073511
C       -1.0778523237    1.2331054508    0.1419322697
C       -2.4609953778    1.2377313097    0.1449021918
C       -3.1828595584    0.0659504786    0.0131144402
C       -2.4838391195   -1.1208255877   -0.1228873819
Cl      -3.3467970915   -2.6079770619   -0.2902383651
C       -1.0998324700   -1.1524017007   -0.1289191216
H        4.0685959236   -1.3598991355   -0.1616275755
H        4.1012563964    1.3249313171    0.1432185893
H       -0.5524818446    2.1653604417    0.2468674589
H       -2.9821821280    2.1764374563    0.2524196203
H       -4.2608357523    0.0691402333    0.0153817720
H       -0.6010758760   -2.0991514876   -0.2373103799
20   
Iteration 9 Energy -40.07329440
O        1.4706286322   -2.2658951749   -0.2599300330
C        1.8369001894   -1.1290064700   -0.1314638118
C        3.2528871792   -0.6682478497   -0.0816388887
C        3.2685093120    0.6489996972    0.0679282397
C        1.8642403441    1.1428994894    0.1265000030
O        1.5256524067    2.2885692861    0.2572084912
N        1.0411020261    0.0167541661    0.0000622652
C       -0.3808633527    0.0349186603    0.0046381724
C       -1.0786035020    1.2338543199    0.1420178799
C       -2.4617360468    1.2378329499    0.1449143560
C       -3.1829155304    0.0656437941    0.0130796616
C       -2.4831757198   -1.1207190205   -0.1228759215
Cl      -3.3454753091   -2.6082356413   -0.2902686253
C       -1.0991301301   -1.1516122158   -0.1288301990
H        4.0689827801   -1.3616395542   -0.1618268395
H        4.1010540117    1.3231086474    0.1430132326
H       -0.5538603926    2.1664164859    0.2469885730
H       -2.9834216836    2.1762872596    0.2524036504
H       -4.2608527085    0.0682123428    0.0152764806
H       -0.5999225165   -2.0981411830   -0.2371966761
20   
Iteration 10 Energy -40.07329437
O        1.4711162344   -2.2660749399   -0.2599559825
C        1.8372404067   -1.1291414291   -0.1314819556
C        3.2531263634   -0.6680131854   -0.0816139009
C        3.2686990940    0.6492206545    0.0679542822
C        1.8642800489    1.1427872772    0.1264894984
O        1.5254465744    2.2883804286    0.2571922326
N        1.0413108648    0.0165367136    0.0000372409
C       -0.3806624478    0.0346686260    0.0046093765
C       -1.0786284095    1.2334363676    0.1419688360
C       -2.4617649317    1.2375772403    0.1448837252
C       -3.1833316832    0.0656557594    0.0130816139
C       -2.4830458827   -1.1203742233   -0.1228355999
Cl      -3.3467952819   -2.6070266070   -0.2901256635
C       -1.0989323813   -1.1517778306   -0.1288478790
H        4.0692336017   -1.3613720700   -0.1617994799
H        4.1010631816    1.3235654796    0.1430677289
H       -0.5539125859    2.1659932904    0.2469377641
H       -2.9832866935    2.1761150669    0.2523809913
H       -4.2612924989    0.0682212003    0.0152781088
H       -0.5998635841   -2.0983778294   -0.2372209269
