36   
Iteration 0 Energy -5.61089598
C        5.0015130589   -0.4667384488    0.3847484937
C        4.5750875787    0.7436036956    0.7830819983
C        5.4852423189    1.9232797561    0.9353268852
C        3.1485695797    0.9832821676    1.1604545926
O        2.8490660206    1.7835516936    2.0386524268
N        2.2312081868    0.3023202159    0.4032275260
C        0.8101905086    0.5793546460    0.5092386232
C       -0.0149294914   -0.5493285701   -0.1287870590
O        0.3707491318   -0.6425499358   -1.5135114569
C       -1.5260433575   -0.2613933170   -0.0103344658
O       -1.8885180045    0.7064426917   -1.0137766976
C       -2.4208559327   -1.5256895126   -0.0917730235
O       -1.9805644486   -2.3991503535   -1.1395532675
C       -3.9172673879   -1.2358609322   -0.3430549811
O       -4.0560834240   -0.7960455065   -1.7129414352
C       -4.5442787439   -0.2137501222    0.6133952084
O       -4.4390125006    1.1122606988    0.0987545325
H        6.0438588964   -0.6373628296    0.1334091733
H        4.3407613268   -1.3260528959    0.3266019462
H        6.5051390568    1.6958323422    0.6072206999
H        5.5362115831    2.2403316411    1.9820815150
H        5.1241373942    2.7638209960    0.3335152866
H        2.5388956672   -0.1475415492   -0.4516280951
H        0.5498544347    0.7084109875    1.5654550051
H        0.6398634354    1.5307591837   -0.0077516524
H        0.2389903352   -1.4978826101    0.3579599240
H        0.0162953984    0.1619099805   -1.9377307972
H       -1.7248039055    0.2113214528    0.9588741598
H       -2.2442348575    0.1971466897   -1.7748170416
H       -2.3073630052   -2.0821465125    0.8458125805
H       -2.4447211211   -2.1168229924   -1.9533492721
H       -4.4597180037   -2.1854398191   -0.2644184274
H       -4.7899024372   -0.1458843302   -1.7154263614
H       -4.1119776981   -0.2617484267    1.6173750789
H       -5.6162934362   -0.4174543918    0.7043141187
H       -3.5190661617    1.2652142228   -0.2032785624
36   
Iteration 1 Energy -5.61597165
C        5.0843502139   -0.4209606063    0.4520840077
C        4.5715543431    0.7517407404    0.8047187464
C        5.4400553012    1.9401820308    1.0063204210
C        3.1214195973    0.9236251037    1.0700612597
O        2.7699809953    1.7133872252    1.9318658647
N        2.2334422727    0.2088158988    0.2974563404
C        0.8328942760    0.5382332051    0.4291225084
C       -0.0350895659   -0.5621501151   -0.1801861194
O        0.2997081441   -0.7020376495   -1.5556126143
C       -1.5295019497   -0.2362371996   -0.0390748304
O       -1.8765105967    0.7193353031   -1.0384973523
C       -2.4196564008   -1.4977998653   -0.0989894507
O       -1.9851355093   -2.3598667029   -1.1415212280
C       -3.9206964102   -1.2130543795   -0.3095862689
O       -4.1150280173   -0.7630281640   -1.6510949179
C       -4.5135409260   -0.1955355590    0.6741164872
O       -4.4107582337    1.1095549193    0.1479033693
H        6.1352763287   -0.5450465977    0.2821264216
H        4.4708813431   -1.2939363315    0.3520156993
H        6.4791660649    1.7269258025    0.7524700007
H        5.4062309582    2.2631868524    2.0475093175
H        5.1054099413    2.7683286138    0.3805510057
H        2.5128501966   -0.2653143627   -0.5622136444
H        0.6049444810    0.6893116089    1.4885070533
H        0.6627954242    1.4862869887   -0.0894228491
H        0.1980084540   -1.5189427935    0.3066482381
H       -0.0277099117    0.0947983237   -2.0270973527
H       -1.6985169924    0.2576619562    0.9287613790
H       -2.2496688763    0.2363915487   -1.8089294377
H       -2.2872810232   -2.0601408006    0.8363529062
H       -2.4358383688   -2.1001614658   -1.9744872195
H       -4.4555357424   -2.1718961940   -0.2236223284
H       -4.8484801547   -0.1096598355   -1.6559839369
H       -4.0303698644   -0.2471438763    1.6559261996
H       -5.5842955847   -0.3736454891    0.8275224978
H       -3.5053542127    1.2087918721   -0.2183529944
36   
Iteration 2 Energy -5.61658525
C        4.9558336690   -0.4755662624    0.4041053499
C        4.5799638358    0.7310156806    0.7867379191
C        5.5448039572    1.8400247006    0.9549172982
C        3.1674076096    1.0096931126    1.1196935932
O        2.8923138213    1.8075053896    1.9985263860
N        2.1812364560    0.3673937860    0.3966900342
C        0.7747999001    0.6594184703    0.4900302077
C       -0.0438056881   -0.4665309315   -0.1287673102
O        0.3172105160   -0.6226117829   -1.4803143661
C       -1.5496671191   -0.1876897049   -0.0279465756
O       -1.9009498257    0.7357003862   -1.0393126236
C       -2.3778284695   -1.4861176387   -0.1000200717
O       -1.8834936332   -2.3219209236   -1.1217685873
C       -3.8828646756   -1.2675158003   -0.3403465394
O       -4.0733308125   -0.8257106046   -1.6698598714
C       -4.5383925767   -0.2790318476    0.6377538733
O       -4.4784668305    1.0199610967    0.1192672588
H        5.9734917390   -0.6999128905    0.1798662344
H        4.2528284125   -1.2735676421    0.3322220216
H        6.5489750994    1.5484380381    0.6515797989
H        5.5807521408    2.1521485761    1.9975182838
H        5.2475598989    2.6994350315    0.3563155765
H        2.4261010297   -0.1185347271   -0.4715647925
H        0.5196226769    0.8163296263    1.5421142245
H        0.5788971093    1.5953109038   -0.0392434425
H        0.2041042940   -1.4150668339    0.3711789652
H       -0.0157415965    0.1537997442   -1.9879280915
H       -1.7568602668    0.3132922630    0.9308593771
H       -2.2341306257    0.2404057198   -1.8216590689
H       -2.2415197814   -2.0442060691    0.8396048867
H       -2.3165472412   -2.0847720147   -1.9732828793
H       -4.3757581524   -2.2526496708   -0.2682222229
H       -4.8348929831   -0.2033026883   -1.7019511513
H       -4.0630008763   -0.3142499288    1.6251926213
H       -5.6040252871   -0.4941746325    0.7840423001
H       -3.5746257295    1.1432600742   -0.2486614378
36   
Iteration 3 Energy -5.61763130
C        4.9902773113   -0.4587641991    0.4312033563
C        4.5758781613    0.7447268637    0.7987711983
C        5.4982349965    1.8871995168    0.9932664326
C        3.1455457015    0.9824046325    1.0876645818
O        2.7986853066    1.7721153711    1.9498293554
N        2.2097521181    0.2973611552    0.3375338414
C        0.8089816728    0.6097844667    0.4446784109
C       -0.0346410594   -0.5050351429   -0.1624842013
O        0.3120607870   -0.6750339090   -1.5141985706
C       -1.5383962781   -0.2038564894   -0.0457119312
O       -1.8895880066    0.7177621869   -1.0571600151
C       -2.3889172006   -1.4895262857   -0.1057492360
O       -1.9330674522   -2.3329160183   -1.1365255436
C       -3.8923526821   -1.2407816038   -0.3233502737
O       -4.0883443016   -0.7911544978   -1.6473630508
C       -4.5187191603   -0.2454962152    0.6699741169
O       -4.4429403020    1.0580474865    0.1655830462
H        6.0233839768   -0.6561534124    0.2375528871
H        4.3062403037   -1.2759241420    0.3405664516
H        6.5220969556    1.6297574857    0.7228750461
H        5.4898236954    2.2042424150    2.0360868407
H        5.1901706329    2.7358713546    0.3829958862
H        2.4695495898   -0.1928755068   -0.5222059814
H        0.5672876701    0.7732965465    1.4993621234
H        0.6190501893    1.5482759375   -0.0831505268
H        0.2025912364   -1.4566279489    0.3372377370
H       -0.0130777488    0.1061633516   -2.0181194914
H       -1.7249225027    0.3028198434    0.9139687142
H       -2.2357803814    0.2187350033   -1.8322198564
H       -2.2471705269   -2.0519005301    0.8302452990
H       -2.3769114083   -2.0749391886   -1.9759664808
H       -4.4032584163   -2.2158647467   -0.2493058482
H       -4.8393550375   -0.1549581893   -1.6639882296
H       -4.0302482509   -0.2959679183    1.6503988766
H       -5.5853036761   -0.4454165423    0.8293305640
H       -3.5466159188    1.1746288748   -0.2242583504
36   
Iteration 4 Energy -5.61800913
C        5.0287694771   -0.4330513373    0.4386316326
C        4.5741064251    0.7582517931    0.8084033790
C        5.4909497167    1.9006430320    1.0344795506
C        3.1339195469    0.9760070708    1.0625273088
O        2.7910019260    1.7725101306    1.9211759170
N        2.2098900187    0.2785848520    0.3082378135
C        0.8102175751    0.5927799461    0.4158995532
C       -0.0399682181   -0.5235887099   -0.1821623963
O        0.3118363452   -0.7179860182   -1.5284108243
C       -1.5453118210   -0.2142144247   -0.0730038027
O       -1.8904633136    0.6925062423   -1.0994292362
C       -2.4047859762   -1.4964446510   -0.1150681219
O       -1.9805909496   -2.3489527275   -1.1511963167
C       -3.9090831732   -1.2278995530   -0.3070668840
O       -4.1209378930   -0.7662867028   -1.6236799922
C       -4.5032984824   -0.2284988647    0.7020260596
O       -4.4064455445    1.0752107758    0.2017240630
H        6.0743059372   -0.6007209114    0.2723357078
H        4.3664658243   -1.2667112464    0.3151663159
H        6.5219241000    1.6464627641    0.7857955134
H        5.4572921535    2.2103022873    2.0798519763
H        5.1950481900    2.7555020192    0.4253610624
H        2.4759976466   -0.2200766322   -0.5431665480
H        0.5705781277    0.7635052046    1.4702859245
H        0.6189998221    1.5306902273   -0.1133444099
H        0.1886504378   -1.4710901234    0.3292499419
H       -0.0027169639    0.0618574846   -2.0397622077
H       -1.7294927011    0.3064208182    0.8789995405
H       -2.2240034897    0.1805619676   -1.8717070368
H       -2.2501182779   -2.0558072138    0.8202412365
H       -2.4166286377   -2.0695203480   -1.9875838643
H       -4.4334325744   -2.1949729480   -0.2310163252
H       -4.8655967546   -0.1225281381   -1.6172100837
H       -3.9963634252   -0.2903446476    1.6722537110
H       -5.5691379483   -0.4143682794    0.8808649967
H       -3.5315771306    1.1612668672   -0.2423359757
36   
Iteration 5 Energy -5.61827723
C        5.0066284194   -0.4239889162    0.4146007183
C        4.5675352990    0.7659755265    0.8060607863
C        5.4888782095    1.8994418251    1.0566648355
C        3.1288720112    0.9906854435    1.0591716890
O        2.7749887347    1.7910889311    1.9099937581
N        2.2066044239    0.2859325659    0.3101048106
C        0.8065951105    0.5950302977    0.4120924135
C       -0.0399521673   -0.5278589174   -0.1785822403
O        0.3248077474   -0.7491211905   -1.5153168565
C       -1.5464856462   -0.2155876848   -0.0919726428
O       -1.8794709801    0.6693078722   -1.1395053126
C       -2.4045289355   -1.4985306400   -0.1181843297
O       -1.9959929425   -2.3550669500   -1.1550127139
C       -3.9086543491   -1.2227090552   -0.2984623786
O       -4.1245463091   -0.7516678721   -1.6097117896
C       -4.4903969698   -0.2254497851    0.7208569108
O       -4.3720928633    1.0801139982    0.2322506429
H        6.0481032414   -0.6087927946    0.2441743148
H        4.3295846417   -1.2419366808    0.2723963048
H        6.5200519881    1.6458924393    0.8085195380
H        5.4504892784    2.1912719506    2.1069616668
H        5.1984362813    2.7669568120    0.4630730462
H        2.4758536781   -0.2217467728   -0.5348668308
H        0.5638278005    0.7735083315    1.4645824719
H        0.6110328422    1.5297353467   -0.1212649235
H        0.1800902394   -1.4679810364    0.3503852687
H        0.0243307033    0.0250190177   -2.0437912023
H       -1.7401012912    0.3239752886    0.8473081415
H       -2.1899620894    0.1438035018   -1.9121277512
H       -2.2391675272   -2.0530553745    0.8180035783
H       -2.4133433571   -2.0573114089   -1.9947215098
H       -4.4386705680   -2.1871051749   -0.2276455862
H       -4.8707340409   -0.1092862035   -1.5998917652
H       -3.9808732757   -0.2992238235    1.6889164710
H       -5.5572153842   -0.4025921540    0.9020158958
H       -3.5145219588    1.1412732920   -0.2497082513
36   
Iteration 6 Energy -5.61837696
C        4.9955074074   -0.4126742899    0.3735436423
C        4.5649710303    0.7697786382    0.7944386039
C        5.4915238537    1.8937554898    1.0673221778
C        3.1289584685    0.9981716493    1.0596395338
O        2.7795549345    1.8039264654    1.9072704968
N        2.2005387501    0.2931146947    0.3193714864
C        0.7991624333    0.5938806013    0.4262294844
C       -0.0424211195   -0.5337751480   -0.1616364645
O        0.3337187736   -0.7656196693   -1.4941710752
C       -1.5487603933   -0.2198404466   -0.0917608657
O       -1.8766849675    0.6542449975   -1.1502215608
C       -2.4057233745   -1.5015406971   -0.1094143973
O       -2.0039179431   -2.3612661371   -1.1454576437
C       -3.9071308470   -1.2221355300   -0.2942483835
O       -4.1106493193   -0.7529500237   -1.6090589461
C       -4.4914926489   -0.2181533979    0.7160677517
O       -4.3522365286    1.0870863543    0.2277558161
H        6.0368935796   -0.5878575089    0.1961809848
H        4.3197821070   -1.2281819308    0.2159853912
H        6.5207637605    1.6418470787    0.8104130507
H        5.4573416108    2.1623766656    2.1237637371
H        5.2023755346    2.7752022114    0.4942652096
H        2.4657339832   -0.2188222644   -0.5245094710
H        0.5585499313    0.7711229628    1.4794344358
H        0.5968878049    1.5279216463   -0.1057838775
H        0.1728300041   -1.4689204196    0.3780289426
H        0.0459857306    0.0077015183   -2.0308742947
H       -1.7506209742    0.3319247176    0.8385686487
H       -2.1786330380    0.1224085263   -1.9213108186
H       -2.2360879844   -2.0516531839    0.8282456318
H       -2.4042079990   -2.0473456511   -1.9872264619
H       -4.4405466714   -2.1847589594   -0.2265536595
H       -4.8593712183   -0.1140474526   -1.6100995226
H       -3.9983493580   -0.2948267403    1.6923438567
H       -5.5625777031   -0.3850654724    0.8800097769
H       -3.5016676152    1.1349707108   -0.2691840379
36   
Iteration 7 Energy -5.61840386
C        4.9937919803   -0.4012315343    0.3350078051
C        4.5679450200    0.7727106590    0.7829374948
C        5.4982085722    1.8873631247    1.0812733396
C        3.1334673526    1.0042044873    1.0548770125
O        2.7911899947    1.8173529720    1.8982340000
N        2.1996589288    0.2969359161    0.3242431230
C        0.7975047541    0.5930864341    0.4384891746
C       -0.0419579792   -0.5378089148   -0.1456658294
O        0.3442473304   -0.7790009656   -1.4751109831
C       -1.5462346065   -0.2166760095   -0.0943724194
O       -1.8580601105    0.6495597833   -1.1653025178
C       -2.4071647123   -1.4951928695   -0.1032256593
O       -2.0039242658   -2.3642737144   -1.1316006064
C       -3.9099098692   -1.2212905360   -0.2908047632
O       -4.1153564514   -0.7597040009   -1.6097884214
C       -4.5056138870   -0.2165259608    0.7111166722
O       -4.3660933161    1.0917622740    0.2257792072
H        6.0328265340   -0.5822268699    0.1505996721
H        4.3144977611   -1.2104997942    0.1632238953
H        6.5267535269    1.6375669066    0.8199512172
H        5.4641073027    2.1328578662    2.1432142989
H        5.2127915759    2.7817316265    0.5268504041
H        2.4592274834   -0.2217685345   -0.5174325367
H        0.5614304667    0.7694638996    1.4928411017
H        0.5907909280    1.5262724635   -0.0933361514
H        0.1659243845   -1.4683026609    0.4045746388
H        0.0677432219   -0.0052069049   -2.0166582985
H       -1.7555910671    0.3478348322    0.8267701462
H       -2.1524141495    0.1132486711   -1.9356433329
H       -2.2362918342   -2.0380049850    0.8381953449
H       -2.3849547205   -2.0467056594   -1.9805367254
H       -4.4373257821   -2.1868244739   -0.2197375757
H       -4.8743887009   -0.1342707032   -1.6164868048
H       -4.0284938883   -0.2923965573    1.6952881819
H       -5.5789448930   -0.3851271729    0.8570817288
H       -3.5193868896    1.1410869107   -0.2774786547
36   
Iteration 8 Energy -5.61845870
C        4.9943317327   -0.3860694048    0.3044507603
C        4.5658129462    0.7793168548    0.7721378518
C        5.4946301547    1.8902390197    1.0891428200
C        3.1313070735    1.0055688463    1.0485486140
O        2.7899358848    1.8175971305    1.8932219664
N        2.1967618497    0.2935651947    0.3234800641
C        0.7943748971    0.5848592414    0.4500884280
C       -0.0446001256   -0.5466389518   -0.1336676968
O        0.3430512677   -0.7864133160   -1.4636222231
C       -1.5482157911   -0.2233028523   -0.0855031278
O       -1.8582847251    0.6435985403   -1.1570073719
C       -2.4120995474   -1.4993891424   -0.0943189768
O       -2.0042810296   -2.3757737463   -1.1153197285
C       -3.9116355138   -1.2184023800   -0.2925215590
O       -4.1054955748   -0.7620544456   -1.6158722281
C       -4.5040047003   -0.2026374305    0.6982309871
O       -4.3339259954    1.1018195063    0.2110050414
H        6.0320769836   -0.5703577234    0.1145116114
H        4.3141987929   -1.1925214583    0.1221793893
H        6.5237019335    1.6459157888    0.8245378440
H        5.4597522979    2.1183647562    2.1549435880
H        5.2087395689    2.7928932144    0.5485124817
H        2.4512769596   -0.2261878832   -0.5191541321
H        0.5659061027    0.7553971405    1.5070437060
H        0.5813301880    1.5192221574   -0.0771738848
H        0.1622867763   -1.4769996944    0.4169521264
H        0.0690502671   -0.0103438196   -2.0030393852
H       -1.7594865980    0.3433854012    0.8341396759
H       -2.1591605192    0.1073833146   -1.9248539835
H       -2.2491057860   -2.0393622687    0.8502367685
H       -2.3722388407   -2.0591239163   -1.9702003084
H       -4.4463819832   -2.1797357384   -0.2189151315
H       -4.8643819196   -0.1375602585   -1.6314710133
H       -4.0433657381   -0.2846299904    1.6896307247
H       -5.5825275430   -0.3514335083    0.8271366489
H       -3.4793337511    1.1298118274   -0.2801231686
36   
Iteration 9 Energy -5.61850285
C        4.9973884844   -0.3818050578    0.2933707262
C        4.5677818923    0.7806676154    0.7669254254
C        5.4995955004    1.8874176716    1.0885754668
C        3.1337048268    1.0059314784    1.0445505011
O        2.7924228359    1.8175306798    1.8895214225
N        2.1972705743    0.2912897369    0.3238182533
C        0.7958678181    0.5831078418    0.4568756006
C       -0.0450141410   -0.5467908988   -0.1273781602
O        0.3424812125   -0.7871238429   -1.4565477085
C       -1.5488010701   -0.2214816416   -0.0776214787
O       -1.8581752708    0.6465441947   -1.1477562318
C       -2.4143359259   -1.4967784114   -0.0896174223
O       -2.0002614813   -2.3750886998   -1.1057109151
C       -3.9128130087   -1.2174388110   -0.2972314841
O       -4.0996592367   -0.7679392588   -1.6230593112
C       -4.5120852458   -0.2013854958    0.6892864375
O       -4.3424206017    1.1034110427    0.2053251829
H        6.0381732953   -0.5527562818    0.1079110420
H        4.3231486881   -1.1918334755    0.1047499320
H        6.5278544549    1.6412264544    0.8224430280
H        5.4656542389    2.1107969859    2.1554216906
H        5.2161322562    2.7933133226    0.5520955440
H        2.4472599673   -0.2298225768   -0.5194569979
H        0.5717383069    0.7506905226    1.5151977601
H        0.5806619548    1.5184804136   -0.0676539011
H        0.1603413821   -1.4785081100    0.4215641801
H        0.0701670450   -0.0109695119   -1.9971433796
H       -1.7583355175    0.3431945315    0.8438754302
H       -2.1669951697    0.1113534843   -1.9136246023
H       -2.2591730741   -2.0360535680    0.8570248165
H       -2.3673217113   -2.0611245729   -1.9620606044
H       -4.4456476648   -2.1798421113   -0.2212086192
H       -4.8620204739   -0.1484791924   -1.6486643177
H       -4.0570402862   -0.2857426895    1.6830828879
H       -5.5915667136   -0.3494714868    0.8121259287
H       -3.4859781464    1.1354797241   -0.2816389439
36   
Iteration 10 Energy -5.61855649
C        4.9974244000   -0.3681612077    0.2560422399
C        4.5709769826    0.7858977520    0.7527031199
C        5.5049588103    1.8853055396    1.0926971129
C        3.1385178812    1.0084861744    1.0381829597
O        2.8039860735    1.8257778864    1.8803279498
N        2.1961914546    0.2881794111    0.3302493635
C        0.7959139834    0.5775476955    0.4760005316
C       -0.0462083725   -0.5515964207   -0.1080323094
O        0.3469293011   -0.7976673132   -1.4339933646
C       -1.5493843823   -0.2209317221   -0.0664375875
O       -1.8489383766    0.6444183577   -1.1413829502
C       -2.4192905889   -1.4935220676   -0.0800367619
O       -1.9973340470   -2.3788901731   -1.0860868879
C       -3.9151904427   -1.2137529390   -0.3047952574
O       -4.0876992905   -0.7746740567   -1.6355425045
C       -4.5248629200   -0.1954121144    0.6730189055
O       -4.3414683704    1.1112818580    0.2000857707
H        6.0377460405   -0.5363630959    0.0654349794
H        4.3223480585   -1.1742532023    0.0541077279
H        6.5326324965    1.6423459896    0.8212658815
H        5.4723643005    2.0901944529    2.1633083371
H        5.2222816790    2.8008784259    0.5724285569
H        2.4372394633   -0.2382886939   -0.5124519192
H        0.5795263374    0.7397136977    1.5367572756
H        0.5751664735    1.5146126598   -0.0432217024
H        0.1531197764   -1.4828017118    0.4440369791
H        0.0806455295   -0.0219577778   -1.9784363037
H       -1.7612722820    0.3464601899    0.8529279150
H       -2.1621769693    0.1088353883   -1.9054969496
H       -2.2762917071   -2.0281910525    0.8713277667
H       -2.3519707736   -2.0653937523   -1.9477926431
H       -4.4475487323   -2.1763835739   -0.2269951497
H       -4.8596246579   -0.1697747325   -1.6799173937
H       -4.0879633838   -0.2878666692    1.6742162472
H       -5.6073695656   -0.3369285417    0.7764938134
H       -3.4833741845    1.1428753447   -0.2836265701
36   
Iteration 11 Energy -5.61592181
C        4.9550725101   -0.1559568836   -0.2068519530
C        4.5817071354    0.8549854945    0.5692354113
C        5.5584733231    1.8248298537    1.1188017782
C        3.1749431853    1.0389993647    0.9610970895
O        2.9150381875    1.9244252536    1.7594039194
N        2.1731479105    0.2473085864    0.4236842387
C        0.7976368170    0.5036678985    0.7303115153
C       -0.0625254673   -0.6099690921    0.1418046706
O        0.4024578204   -0.9246988963   -1.1393589103
C       -1.5518980136   -0.2098510490    0.0769938348
O       -1.7196279131    0.6238916662   -1.0491352780
C       -2.4782971245   -1.4456570697    0.0320745443
O       -1.9678722045   -2.4176886639   -0.8361590588
C       -3.9256964202   -1.1646302778   -0.4083677224
O       -3.9127858049   -0.8635212746   -1.7819246047
C       -4.6555292906   -0.1203436214    0.4550336179
O       -4.3237471073    1.2052899674    0.1576464259
H        5.9867290615   -0.2860854107   -0.4644369855
H        4.2617523616   -0.8877593272   -0.5670392950
H        6.5735733265    1.6205362602    0.7759944545
H        5.5509273194    1.7919131437    2.2090617209
H        5.2951405747    2.8400066417    0.8193875492
H        2.3044189576   -0.3450975217   -0.4013092044
H        0.6810109677    0.5919090115    1.8149778117
H        0.5131929701    1.4629815982    0.2876806973
H        0.0555462593   -1.5349278983    0.7273714662
H        0.2149728211   -0.1557257554   -1.7270452984
H       -1.7931575409    0.3871072625    0.9707582650
H       -2.0865471393    0.0971836224   -1.7993080139
H       -2.4960643104   -1.9170889707    1.0287959955
H       -2.1570236336   -2.1190098490   -1.7531811410
H       -4.4570957243   -2.1267274834   -0.3056337642
H       -4.7576849181   -0.4860286842   -2.0708441912
H       -4.4632670484   -0.3172587683    1.5162855143
H       -5.7426112762   -0.1774217396    0.3114625261
H       -3.4443105770    1.2504126173   -0.2799004477
36   
Iteration 12 Energy -5.61826636
C        4.9850152635   -0.2743393637    0.0239701774
C        4.5835174942    0.8188647670    0.6611858750
C        5.5368395133    1.8630893296    1.1056135648
C        3.1633762065    1.0244945402    1.0009223688
O        2.8704145982    1.8786817952    1.8216674697
N        2.1861628914    0.2682077398    0.3789159384
C        0.7962492298    0.5428992775    0.6048007512
C       -0.0541921142   -0.5790901202    0.0184894093
O        0.3764128354   -0.8592395000   -1.2855110620
C       -1.5522047782   -0.2146022676    0.0071595238
O       -1.7857679707    0.6362790539   -1.0947580226
C       -2.4499826459   -1.4699786079   -0.0229041290
O       -1.9777509683   -2.3988698782   -0.9613814613
C       -3.9250431745   -1.1894012745   -0.3594866244
O       -4.0036455744   -0.8192591969   -1.7165581170
C       -4.5992085925   -0.1600359123    0.5644875465
O       -4.3351374883    1.1596329439    0.1791568179
H        6.0207878257   -0.4263600736   -0.2026926851
H        4.3010427385   -1.0489979753   -0.2557572309
H        6.5586924162    1.6385231907    0.7979236602
H        5.5176939588    1.9537597154    2.1923464652
H        5.2606658177    2.8326084051    0.6896468892
H        2.3699017963   -0.2922356968   -0.4573068348
H        0.6284381619    0.6688148710    1.6790917391
H        0.5432837378    1.4915261714    0.1221886780
H        0.1052316253   -1.5077887504    0.5878643007
H        0.1471008926   -0.0872459684   -1.8528692809
H       -1.7794973184    0.3661065524    0.9147019171
H       -2.1253438645    0.1034312384   -1.8515503947
H       -2.3890068746   -1.9740603656    0.9547973991
H       -2.2526632750   -2.0932989245   -1.8543458835
H       -4.4548161371   -2.1531729700   -0.2709568495
H       -4.8276382576   -0.3263052528   -1.8882173544
H       -4.2816052098   -0.3082669656    1.6032946737
H       -5.6916818257   -0.2610116489    0.5443663459
H       -3.4656409389    1.1966411268   -0.2809284022
36   
Iteration 13 Energy -5.61867742
C        4.9893779914   -0.3177575244    0.1300745705
C        4.5764038759    0.8044015948    0.7055390506
C        5.5226876296    1.8728895549    1.1052277135
C        3.1500302605    1.0211698023    1.0202435601
O        2.8322445821    1.8553778179    1.8522813899
N        2.1911018205    0.2809817874    0.3551883494
C        0.7945077523    0.5596979391    0.5417128984
C       -0.0501307056   -0.5677558318   -0.0424970668
O        0.3637663111   -0.8322808029   -1.3576675638
C       -1.5505994335   -0.2204127246   -0.0312515828
O       -1.8172826437    0.6360923377   -1.1219007391
C       -2.4335152839   -1.4846160990   -0.0495458057
O       -1.9879006064   -2.3923329083   -1.0236826537
C       -3.9207176609   -1.2032201055   -0.3263952805
O       -4.0502038918   -0.7897635851   -1.6687924060
C       -4.5623833927   -0.1758129364    0.6192929123
O       -4.3329328446    1.1322943350    0.1718786029
H        6.0273065582   -0.4776894361   -0.0799522470
H        4.3097702357   -1.1072690292   -0.1165639202
H        6.5467498831    1.6378806576    0.8136618579
H        5.4976249768    2.0140038982    2.1863212662
H        5.2452012851    2.8204049286    0.6424261115
H        2.4049548142   -0.2633899211   -0.4848433076
H        0.6027904252    0.7033360771    1.6098338027
H        0.5553631310    1.5024996224    0.0411435197
H        0.1290437401   -1.4961474816    0.5212329224
H        0.1180119677   -0.0580706081   -1.9141695217
H       -1.7723572688    0.3573131440    0.8794561389
H       -2.1408817213    0.0993337639   -1.8813816555
H       -2.3263390740   -2.0037038356    0.9154330913
H       -2.2963893530   -2.0793994801   -1.9029813372
H       -4.4532986139   -2.1656658516   -0.2449521216
H       -4.8502927308   -0.2310719554   -1.7612448426
H       -4.1873787559   -0.2873516890    1.6433814527
H       -5.6519868118   -0.2953533524    0.6581910116
H       -3.4723464532    1.1513879024   -0.3073309924
