13   
Iteration 0 Energy -21.03911772
C       -0.7240004899    1.0074550778   -0.6500265324
C       -0.2168354211   -0.3704101250   -0.2676781113
N       -1.0804067126   -1.0377252473    0.6952668870
C        1.1594297827   -0.2620563867    0.3431280764
O        2.2183350938   -0.5439302165   -0.4427990644
O        1.2423998692    0.0894096863    1.4971841544
H       -1.7170278316    0.9595799023   -1.0967074662
H       -0.7822218261    1.6420109399    0.2337821996
H       -0.0518412053    1.4912215073   -1.3592621156
H       -0.1454552363   -1.0127167609   -1.1603078835
H       -2.0597656027   -0.8722445642    0.4959238049
H       -0.8648135191   -0.6613277521    1.6132159789
H        3.0222030989   -0.4292660664    0.0982800775
13   
Iteration 1 Energy -21.04100525
C       -0.6903379241    1.0126684859   -0.6523981858
C       -0.2070130899   -0.3806148448   -0.2329412500
N       -1.0957088792   -1.0609470433    0.6985961685
C        1.1445888279   -0.2308187822    0.4458146580
O        2.0744224200   -0.5170106249   -0.4628089038
O        1.3591136936    0.1249033669    1.5784397836
H       -1.6577652390    0.9394240721   -1.1445367818
H       -0.7913266605    1.6514040704    0.2258565762
H        0.0115108398    1.4844813457   -1.3390553670
H       -0.0950694866   -1.0162876758   -1.1237974015
H       -2.0612953615   -0.8989241167    0.4402906465
H       -0.9471581580   -0.6909505695    1.6332997426
H        2.9560390174   -0.4173276890   -0.0667596803
13   
Iteration 2 Energy -21.04233602
C       -0.6988999640    1.0190392347   -0.6531692777
C       -0.2310693090   -0.3893446684   -0.2447127078
N       -1.1088846681   -1.0609054032    0.7042918720
C        1.1458861182   -0.2473653784    0.3953360426
O        2.1503058012   -0.5069919820   -0.4368014825
O        1.3526158464    0.0962044151    1.5269873786
H       -1.6767260932    0.9549528262   -1.1249337744
H       -0.7698955112    1.6582718698    0.2271642724
H       -0.0031253255    1.4711839366   -1.3568340145
H       -0.1432395317   -1.0185673381   -1.1383505872
H       -2.0783720879   -0.8924481437    0.4617009514
H       -0.9483065169   -0.6947583956    1.6383795128
H        3.0097112417   -0.3892709785    0.0009418196
13   
Iteration 3 Energy -21.04271101
C       -0.6925052819    1.0152262931   -0.6492873617
C       -0.2258145267   -0.3912719887   -0.2405622317
N       -1.1049432659   -1.0575719829    0.7050840933
C        1.1419966812   -0.2480688959    0.3996699513
O        2.1372044544   -0.5020655785   -0.4528515846
O        1.3243202609    0.0917583803    1.5378826735
H       -1.6696118720    0.9552193094   -1.1244206418
H       -0.7645073345    1.6539032975    0.2299387168
H        0.0082868408    1.4626635249   -1.3499374114
H       -0.1301360927   -1.0209634958   -1.1319874878
H       -2.0756050509   -0.8968668812    0.4595553531
H       -0.9461737484   -0.6801381974    1.6345221024
H        2.9974889356   -0.3818237899   -0.0176061661
13   
Iteration 4 Energy -21.04275456
C       -0.6871880027    1.0143884506   -0.6493810720
C       -0.2272772453   -0.3957161931   -0.2374550484
N       -1.1086119482   -1.0578819734    0.7072636322
C        1.1404193876   -0.2507291249    0.4041911972
O        2.1308204243   -0.4909062737   -0.4567377624
O        1.3282916517    0.0824226875    1.5429984013
H       -1.6643424155    0.9577946956   -1.1247393063
H       -0.7564027485    1.6537663141    0.2291640542
H        0.0162369755    1.4560216218   -1.3509339792
H       -0.1319723247   -1.0246169612   -1.1295840247
H       -2.0786977541   -0.9008293754    0.4569947678
H       -0.9546189577   -0.6760897319    1.6358549060
H        2.9933429576   -0.3676241411   -0.0276357605
13   
Iteration 5 Energy -21.04280443
C       -0.6768714326    1.0120884392   -0.6497118487
C       -0.2309067409   -0.4041624174   -0.2317124641
N       -1.1160286476   -1.0563047816    0.7126941089
C        1.1378366588   -0.2574725408    0.4084841695
O        2.1240317719   -0.4641424978   -0.4656280021
O        1.3312955981    0.0532621740    1.5521575590
H       -1.6556606869    0.9631895070   -1.1224283663
H       -0.7373277088    1.6547704534    0.2265636269
H        0.0300849370    1.4406295731   -1.3554369227
H       -0.1384815460   -1.0325864928   -1.1243862703
H       -2.0851932891   -0.9091149683    0.4530995024
H       -0.9710326821   -0.6637424830    1.6383254724
H        2.9882537681   -0.3364139701   -0.0420205597
13   
Iteration 6 Energy -21.04283429
C       -0.6684988255    1.0094753407   -0.6507499186
C       -0.2338513862   -0.4103044381   -0.2271969261
N       -1.1222218512   -1.0530280493    0.7180767580
C        1.1362212106   -0.2659642032    0.4105006791
O        2.1208833271   -0.4369297699   -0.4737854798
O        1.3323403984    0.0186635252    1.5604409201
H       -1.6497639719    0.9674111313   -1.1190249871
H       -0.7197498255    1.6569583203    0.2225071124
H        0.0397049682    1.4268421760   -1.3616679347
H       -0.1456286498   -1.0402514503   -1.1191112680
H       -2.0903074455   -0.9147589322    0.4502574241
H       -0.9842341327   -0.6509105648    1.6405501431
H        2.9851061841   -0.3072030912   -0.0507965172
13   
Iteration 7 Energy -21.04285420
C       -0.6634224164    1.0072742992   -0.6527110483
C       -0.2353293751   -0.4127746441   -0.2243256072
N       -1.1262107977   -1.0488184799    0.7225638251
C        1.1356836046   -0.2731708797    0.4114208830
O        2.1199667852   -0.4129018113   -0.4797448242
O        1.3331941082   -0.0166257520    1.5678610220
H       -1.6471771669    0.9689811721   -1.1161659728
H       -0.7074383596    1.6601215768    0.2171965248
H        0.0440242676    1.4171179697   -1.3687001639
H       -0.1509924919   -1.0459529778   -1.1143130078
H       -2.0933596987   -0.9169604241    0.4488853061
H       -0.9926199653   -0.6402115420    1.6425638438
H        2.9836815060   -0.2860785121   -0.0545307753
13   
Iteration 8 Energy -21.04286366
C       -0.6622593586    1.0060697283   -0.6546484024
C       -0.2353510861   -0.4121751598   -0.2234626697
N       -1.1277517840   -1.0458756544    0.7245530041
C        1.1358726395   -0.2777082728    0.4121418947
O        2.1202525747   -0.3995302605   -0.4821229121
O        1.3337708851   -0.0388814215    1.5723951568
H       -1.6472511868    0.9681845762   -1.1155965548
H       -0.7035893374    1.6624890497    0.2129846949
H        0.0440241951    1.4134509327   -1.3732762367
H       -0.1527523409   -1.0485528546   -1.1113934829
H       -2.0943780717   -0.9141743480    0.4493339874
H       -0.9942582364   -0.6362859837    1.6439128160
H        2.9836711075   -0.2770103368   -0.0548212900
13   
Iteration 9 Energy -21.04286753
C       -0.6626722126    1.0055959742   -0.6560680983
C       -0.2350511348   -0.4109911535   -0.2235177152
N       -1.1282600848   -1.0446803884    0.7248154541
C        1.1359921516   -0.2791134418    0.4128430625
O        2.1202966980   -0.3940866803   -0.4825258263
O        1.3340752125   -0.0489971506    1.5747903608
H       -1.6476763788    0.9666129432   -1.1168866486
H       -0.7043838573    1.6634808134    0.2105553173
H        0.0432616020    1.4129129137   -1.3751695455
H       -0.1522952789   -1.0491948008   -1.1102469416
H       -2.0947894125   -0.9092217067    0.4510727228
H       -0.9922900444   -0.6373677043    1.6447780734
H        2.9837927399   -0.2749496234   -0.0544402102
13   
Iteration 10 Energy -21.04287073
C       -0.6627231611    1.0049546106   -0.6575002586
C       -0.2351132684   -0.4106412306   -0.2236402389
N       -1.1293740794   -1.0440518370    0.7246058803
C        1.1356917441   -0.2806277939    0.4136869420
O        2.1197448419   -0.3889029672   -0.4827835765
O        1.3338828598   -0.0572614870    1.5768527596
H       -1.6472310898    0.9652447567   -1.1192894310
H       -0.7055038631    1.6637214250    0.2084299963
H        0.0437441927    1.4120451933   -1.3762614887
H       -0.1517749068   -1.0500973497   -1.1095411756
H       -2.0958666952   -0.9016898654    0.4541088451
H       -0.9888141998   -0.6410326504    1.6458148881
H        2.9833376251   -0.2716608099   -0.0544831368
13   
Iteration 11 Energy -21.04287525
C       -0.6620490726    1.0036564193   -0.6598652685
C       -0.2357894020   -0.4113069716   -0.2237949270
N       -1.1319849262   -1.0433843269    0.7240256635
C        1.1346466402   -0.2827443929    0.4147946233
O        2.1183338638   -0.3798871462   -0.4832793288
O        1.3328721851   -0.0698872560    1.5798351342
H       -1.6454062009    0.9634652631   -1.1239949677
H       -0.7067604294    1.6633890007    0.2052086503
H        0.0461734445    1.4097638970   -1.3774835137
H       -0.1515270281   -1.0520146575   -1.1088924190
H       -2.0983677427   -0.8875119528    0.4604447817
H       -0.9820688271   -0.6492160081    1.6477184039
H        2.9819274955   -0.2643218732   -0.0547168270
13   
Iteration 12 Energy -21.04287913
C       -0.6603901687    1.0019722187   -0.6622596010
C       -0.2370919560   -0.4134201168   -0.2238283411
N       -1.1355963572   -1.0428445615    0.7233407592
C        1.1330454460   -0.2852798713    0.4154965635
O        2.1165350367   -0.3697533614   -0.4840115456
O        1.3310022406   -0.0821958816    1.5823328020
H       -1.6423953786    0.9624132813   -1.1292547455
H       -0.7068697786    1.6623952982    0.2021418841
H        0.0504360980    1.4063081668   -1.3782611356
H       -0.1523624913   -1.0546941128   -1.1085942450
H       -2.1015981849   -0.8714728733    0.4680645719
H       -0.9745335090   -0.6595075221    1.6498403367
H        2.9798190029   -0.2539206696   -0.0550072982
13   
Iteration 13 Energy -21.04288067
C       -0.6591364691    1.0010251594   -0.6633191775
C       -0.2380326597   -0.4152345390   -0.2238189124
N       -1.1377168662   -1.0426494594    0.7229254251
C        1.1319835817   -0.2861762922    0.4153457243
O        2.1156695762   -0.3651005180   -0.4844237456
O        1.3295104668   -0.0867631325    1.5829971360
H       -1.6403850637    0.9623201225   -1.1319535562
H       -0.7064693226    1.6614868017    0.2009844691
H        0.0533746246    1.4042911242   -1.3781822218
H       -0.1534651321   -1.0561974380   -1.1088376995
H       -2.1034221888   -0.8633544884    0.4722395078
H       -0.9704566954   -0.6655959475    1.6509258303
H        2.9785461485   -0.2480513983   -0.0548827742
13   
Iteration 14 Energy -21.04288089
C       -0.6588075910    1.0009092723   -0.6632493932
C       -0.2382199490   -0.4157880050   -0.2237894889
N       -1.1379915586   -1.0426522931    0.7228972716
C        1.1317988087   -0.2861974620    0.4150359607
O        2.1156934887   -0.3652145934   -0.4845041628
O        1.3290853348   -0.0858970336    1.5826514125
H       -1.6399782523    0.9626120037   -1.1320851878
H       -0.7061746214    1.6611907401    0.2012021126
H        0.0540129612    1.4040727232   -1.3778318036
H       -0.1539887784   -1.0563998109   -1.1090584154
H       -2.1036596552   -0.8630978197    0.4724704325
H       -0.9701541353   -0.6662468902    1.6510131554
H        2.9783839477   -0.2472908366   -0.0547518885
